@<TRIPOS>MOLECULE
CM1
   10     9     1     0     0
SMALL
RESP Charge
 
 
@<TRIPOS>ATOM
      1 N          10.3900   49.3120   27.1100 N         1 CM1     -0.415700
      2 H          10.5140   48.4910   27.6850 H         1 CM1      0.298247
      3 CA         11.1810   50.4920   27.4550 CX        1 CM1     -0.035100
      4 HA         10.7710   51.3870   26.9900 H1        1 CM1      0.120473
      5 CB         11.2500   50.6750   28.9720 CT        1 CM1     -0.060209
      6 HB2        10.2430   50.8290   29.3610 H1        1 CM1      0.066169
      7 HB3        11.6630   49.7740   29.4260 H1        1 CM1      0.066169
      8 SG         12.2840   52.0910   29.4590 Y3        1 CM1     -0.353768
      9 C          12.5990   50.1960   26.9260 C         1 CM1      0.597300
     10 O          13.0970   49.0880   27.2050 O         1 CM1     -0.567900
@<TRIPOS>BOND
     1    1    2 1
     2    1    3 1
     3    3    4 1
     4    3    5 1
     5    3    9 1
     6    5    6 1
     7    5    7 1
     8    5    8 1
     9    9   10 1
@<TRIPOS>SUBSTRUCTURE
     1 CM1         1 TEMP              0 ****  ****    0 ROOT
