@<TRIPOS>MOLECULE
GY1
    7     6     1     0     0
SMALL
RESP Charge
 
 
@<TRIPOS>ATOM
      1 N          14.6590   56.1330   33.6070 N         1 GY1     -0.359182
      2 H          15.6660   56.0980   33.5460 H         1 GY1      0.284970
      3 CA         13.9060   56.5820   32.4250 CX        1 GY1     -0.096863
      4 HA2        13.3080   57.4500   32.7020 H1        1 GY1      0.126530
      5 HA3        14.6140   56.9010   31.6610 H1        1 GY1      0.126530
      6 C          12.9940   55.5190   31.8130 C         1 GY1      0.386621
      7 O          13.2900   54.3110   31.8690 Y1        1 GY1     -0.405011
@<TRIPOS>BOND
     1    1    2 1
     2    1    3 1
     3    3    4 1
     4    3    5 1
     5    3    6 1
     6    6    7 1
@<TRIPOS>SUBSTRUCTURE
     1 GY1         1 TEMP              0 ****  ****    0 ROOT
