@<TRIPOS>MOLECULE
HE2
   17    17     1     0     0
SMALL
RESP Charge
 
 
@<TRIPOS>ATOM
      1 N          16.0040   47.8880   31.4240 N         1 HE2     -0.415700
      2 H          16.3840   48.6970   30.9530 H         1 HE2      0.289079
      3 CA         14.5880   47.8350   31.6890 CX        1 HE2     -0.058100
      4 HA         14.4380   47.5050   32.7190 H1        1 HE2      0.082377
      5 CB         13.9690   49.2100   31.5720 CT        1 HE2      0.228991
      6 HB2        14.1920   49.6310   30.5910 HC        1 HE2     -0.012238
      7 HB3        12.8880   49.1090   31.6430 HC        1 HE2     -0.012238
      8 CG         14.4150   50.1920   32.6460 CC        1 HE2     -0.096082
      9 ND1        13.7680   51.3250   32.8520 Y4        1 HE2     -0.086959
     10 CE1        14.3680   51.8580   33.8960 CR        1 HE2     -0.090250
     11 HE1        14.0990   52.8020   34.3450 H5        1 HE2      0.128375
     12 NE2        15.3430   51.0720   34.2920 NA        1 HE2     -0.098783
     13 HE2        15.9500   51.2720   35.0730 H         1 HE2      0.326403
     14 CD2        15.4290   50.0020   33.5430 CW        1 HE2     -0.109647
     15 HD2        16.1030   49.1670   33.6540 H4        1 HE2      0.184973
     16 C          13.7950   46.8940   30.7940 C         1 HE2      0.597300
     17 O          12.8610   46.2690   31.3220 O         1 HE2     -0.567900
@<TRIPOS>BOND
     1    1    2 1
     2    1    3 1
     3    3    4 1
     4    3    5 1
     5    3   16 1
     6    5    6 1
     7    5    7 1
     8    5    8 1
     9    8    9 1
    10    8   14 1
    11    9   10 1
    12   10   11 1
    13   10   12 1
    14   12   13 1
    15   12   14 1
    16   14   15 1
    17   16   17 1
@<TRIPOS>SUBSTRUCTURE
     1 HE2         1 TEMP              0 ****  ****    0 ROOT
