@<TRIPOS>MOLECULE
FAJYAR01
   163   180     7     0     0
SMALL
USER_CHARGES
****
Generated from the CSD

@<TRIPOS>ATOM
     1 Os1     25.8386  11.3800   7.5256   Os        1 RES1   2.0000
     2 N1      26.7890  12.5782   6.1459   N.ar      1 RES1   0.0000
     3 C1      27.9997  13.1551   6.2389   C.ar      1 RES1   0.0000
     4 C2      28.5391  13.9233   5.1692   C.ar      1 RES1   0.0000
     5 C3      27.8062  14.0524   4.0030   C.ar      1 RES1   0.0000
     6 C4      26.5218  13.5090   3.9112   C.ar      1 RES1   0.0000
     7 C5      26.0373  12.7774   4.9999   C.ar      1 RES1   0.0000
     8 C6      25.6675  13.6524   2.7462   C.ar      1 RES1   0.0000
     9 C7      24.4786  13.1041   2.7271   C.ar      1 RES1   0.0000
    10 C8      23.9589  12.3598   3.8266   C.ar      1 RES1   0.0000
    11 C9      24.7370  12.1861   4.9510   C.ar      1 RES1   0.0000
    12 C10     22.6795  11.6873   3.8552   C.ar      1 RES1   0.0000
    13 C11     22.3445  10.9637   4.9665   C.ar      1 RES1   0.0000
    14 C12     23.1881  10.8585   6.0397   C.ar      1 RES1   0.0000
    15 N2      24.4161  11.4689   6.0469   N.ar      1 RES1   0.0000
    16 N3      27.2383  11.4275   9.0459   N.ar      1 RES1   0.0000
    17 C13     28.2101  10.6146   9.3166   C.ar      1 RES1   0.0000
    18 C14     28.9721  10.5875  10.4840   C.ar      1 RES1   0.0000
    19 C15     28.6730  11.5422  11.4546   C.ar      1 RES1   0.0000
    20 C16     27.6398  12.4603  11.2459   C.ar      1 RES1   0.0000
    21 C17     26.8963  12.3806  10.0416   C.ar      1 RES1   0.0000
    22 C18     27.2305  13.4978  12.1808   C.ar      1 RES1   0.0000
    23 C19     26.2593  14.3505  11.9018   C.ar      1 RES1   0.0000
    24 C20     25.4938  14.2660  10.6604   C.ar      1 RES1   0.0000
    25 C21     25.8551  13.2651   9.7458   C.ar      1 RES1   0.0000
    26 C22     24.4616  15.1043  10.3385   C.ar      1 RES1   0.0000
    27 C23     23.8129  14.9577   9.1186   C.ar      1 RES1   0.0000
    28 C24     24.2059  13.8628   8.2648   C.ar      1 RES1   0.0000
    29 N4      25.1996  13.0340   8.5939   N.ar      1 RES1   0.0000
    30 N5      26.5842   9.6010   6.7516   N.ar      1 RES1   0.0000
    31 C25     27.5263   9.4368   5.8215   C.ar      1 RES1   0.0000
    32 C26     27.9922   8.1905   5.4053   C.ar      1 RES1   0.0000
    33 C27     27.4308   7.0525   5.9670   C.ar      1 RES1   0.0000
    34 C28     26.4724   7.2135   6.9126   C.ar      1 RES1   0.0000
    35 C29     26.0516   8.4933   7.3419   C.ar      1 RES1   0.0000
    36 C30     25.8327   6.0357   7.5529   C.ar      1 RES1   0.0000
    37 C31     24.9116   6.2317   8.4413   C.ar      1 RES1   0.0000
    38 C32     24.4238   7.5896   8.9290   C.ar      1 RES1   0.0000
    39 C33     25.0695   8.6989   8.3137   C.ar      1 RES1   0.0000
    40 C34     23.4773   7.8271   9.8162   C.ar      1 RES1   0.0000
    41 C35     23.1531   9.1611  10.1847   C.ar      1 RES1   0.0000
    42 C36     23.8312  10.2863   9.6087   C.ar      1 RES1   0.0000
    43 N6      24.7617   9.9915   8.6559   N.ar      1 RES1   0.0000
    44 H1      28.5249  13.0372   7.0354   H         1 RES1   0.0000
    45 H2      29.4006  14.3441   5.2468   H         1 RES1   0.0000
    46 H3      28.1887  14.5194   3.2554   H         1 RES1   0.0000
    47 H4      25.9878  14.1210   1.9795   H         1 RES1   0.0000
    48 H5      23.9398  13.2125   1.9437   H         1 RES1   0.0000
    49 H6      22.0909  11.7303   3.1004   H         1 RES1   0.0000
    50 H7      21.4870  10.5190   4.9963   H         1 RES1   0.0000
    51 H8      22.9187  10.3596   6.8089   H         1 RES1   0.0000
    52 H9      28.4193   9.9612   8.6452   H         1 RES1   0.0000
    53 H10     29.6655   9.9452  10.6485   H         1 RES1   0.0000
    54 H11     29.1930  11.6028  12.2583   H         1 RES1   0.0000
    55 H12     27.7221  13.5791  12.9976   H         1 RES1   0.0000
    56 H13     26.0522  15.0294  12.5445   H         1 RES1   0.0000
    57 H14     24.2125  15.8104  10.9347   H         1 RES1   0.0000
    58 H15     23.1276  15.5713   8.8599   H         1 RES1   0.0000
    59 H16     23.7450  13.7066   7.4408   H         1 RES1   0.0000
    60 H17     27.8693  10.2162   5.3779   H         1 RES1   0.0000
    61 H18     28.6921   8.1283   4.7579   H         1 RES1   0.0000
    62 H19     27.7332   6.1839   5.6880   H         1 RES1   0.0000
    63 H20     26.0886   5.1479   7.2858   H         1 RES1   0.0000
    64 H21     24.5295   5.4348   8.8241   H         1 RES1   0.0000
    65 H22     22.9969   7.0924  10.2312   H         1 RES1   0.0000
    66 H23     22.4701   9.3077  10.8393   H         1 RES1   0.0000
    67 H24     23.6589  11.1884   9.8615   H         1 RES1   0.0000
    68 Os2     34.1199  11.6827  10.5820   Os        2 RES2   2.0000
    69 N7      35.3411  10.5461   9.4203   N.ar      2 RES2   0.0000
    70 C37     36.2501  10.8920   8.5248   C.ar      2 RES2   0.0000
    71 C38     37.0356  10.0170   7.7807   C.ar      2 RES2   0.0000
    72 C39     36.8272   8.6112   7.9584   C.ar      2 RES2   0.0000
    73 C40     35.8748   8.2112   8.8921   C.ar      2 RES2   0.0000
    74 C41     35.1479   9.1627   9.5825   C.ar      2 RES2   0.0000
    75 C42     35.5765   6.8007   9.1329   C.ar      2 RES2   0.0000
    76 C43     34.6360   6.4628  10.0082   C.ar      2 RES2   0.0000
    77 C44     33.9083   7.4287  10.7570   C.ar      2 RES2   0.0000
    78 C45     34.1796   8.7834  10.5591   C.ar      2 RES2   0.0000
    79 C46     32.9054   7.1083  11.7050   C.ar      2 RES2   0.0000
    80 C47     32.2581   8.0741  12.3644   C.ar      2 RES2   0.0000
    81 C48     32.5932   9.4193  12.0687   C.ar      2 RES2   0.0000
    82 N8      33.5146   9.7811  11.2209   N.ar      2 RES2   0.0000
    83 N9      34.7271  13.4133   9.6850   N.ar      2 RES2   0.0000
    84 C49     35.6604  14.2835  10.1513   C.ar      2 RES2   0.0000
    85 C50     36.1037  15.3514   9.3392   C.ar      2 RES2   0.0000
    86 C51     35.5076  15.5952   8.1134   C.ar      2 RES2   0.0000
    87 C52     34.4757  14.7633   7.6626   C.ar      2 RES2   0.0000
    88 C53     34.1135  13.6827   8.4914   C.ar      2 RES2   0.0000
    89 C54     33.7891  14.9179   6.4308   C.ar      2 RES2   0.0000
    90 C55     32.7982  14.0269   6.0314   C.ar      2 RES2   0.0000
    91 C56     32.4538  12.8874   6.8446   C.ar      2 RES2   0.0000
    92 C57     33.0894  12.7726   8.0931   C.ar      2 RES2   0.0000
    93 C58     31.5530  11.9359   6.4356   C.ar      2 RES2   0.0000
    94 C59     31.2810  10.8936   7.3264   C.ar      2 RES2   0.0000
    95 C60     31.9392  10.8155   8.5534   C.ar      2 RES2   0.0000
    96 N10     32.8988  11.7351   8.9099   N.ar      2 RES2   0.0000
    97 N11     35.4019  11.7399  12.1832   N.ar      2 RES2   0.0000
    98 C61     36.6485  11.2633  12.3239   C.ar      2 RES2   0.0000
    99 C62     37.3754  11.3223  13.5378   C.ar      2 RES2   0.0000
   100 C63     36.8150  11.8594  14.6027   C.ar      2 RES2   0.0000
   101 C64     35.4788  12.3822  14.5860   C.ar      2 RES2   0.0000
   102 C65     34.8279  12.2945  13.3589   C.ar      2 RES2   0.0000
   103 C66     34.7614  12.9065  15.7188   C.ar      2 RES2   0.0000
   104 C67     33.5346  13.3767  15.6151   C.ar      2 RES2   0.0000
   105 C68     32.8439  13.3241  14.3487   C.ar      2 RES2   0.0000
   106 C69     33.5055  12.7774  13.2373   C.ar      2 RES2   0.0000
   107 C70     31.5621  13.8309  14.1173   C.ar      2 RES2   0.0000
   108 C71     31.0058  13.8198  12.8402   C.ar      2 RES2   0.0000
   109 C72     31.7371  13.1870  11.8016   C.ar      2 RES2   0.0000
   110 N12     32.9415  12.6850  11.9853   N.ar      2 RES2   0.0000
   111 H25     36.3951  11.8259   8.4067   H         2 RES2   0.0000
   112 H26     37.6761  10.3278   7.1547   H         2 RES2   0.0000
   113 H27     37.3198   7.9530   7.4647   H         2 RES2   0.0000
   114 H28     36.0508   6.1202   8.6571   H         2 RES2   0.0000
   115 H29     34.4598   5.5305  10.1715   H         2 RES2   0.0000
   116 H30     32.6834   6.1839  11.8767   H         2 RES2   0.0000
   117 H31     31.5734   7.8733  13.0096   H         2 RES2   0.0000
   118 H32     32.1152  10.1206  12.5087   H         2 RES2   0.0000
   119 H33     36.0502  14.1529  11.0182   H         2 RES2   0.0000
   120 H34     36.8048  15.9060   9.6469   H         2 RES2   0.0000
   121 H35     35.7933  16.3204   7.5720   H         2 RES2   0.0000
   122 H36     33.9705  15.6829   5.8787   H         2 RES2   0.0000
   123 H37     32.3855  14.1529   5.1871   H         2 RES2   0.0000
   124 H38     31.1314  11.9853   5.5806   H         2 RES2   0.0000
   125 H39     30.6439  10.2162   7.0831   H         2 RES2   0.0000
   126 H40     31.7264  10.1206   9.1699   H         2 RES2   0.0000
   127 H41     37.0427  10.8696  11.5548   H         2 RES2   0.0000
   128 H42     38.2474  10.9653  13.5819   H         2 RES2   0.0000
   129 H43     37.3253  11.9215  15.4183   H         2 RES2   0.0000
   130 H44     35.1827  12.9256  16.5750   H         2 RES2   0.0000
   131 H45     33.0927  13.7544  16.3842   H         2 RES2   0.0000
   132 H46     31.0941  14.2485  14.8340   H         2 RES2   0.0000
   133 H47     30.1362  14.1847  12.6757   H         2 RES2   0.0000
   134 H48     31.3717  13.1328  10.9228   H         2 RES2   0.0000
   135 P1      30.1952   6.6075   8.9159   P.3       3 RES3  -1.0000
   136 F1      31.3870   5.6149   9.1425   F         3 RES3   0.0000
   137 F2      28.9904   7.5721   8.7287   F         3 RES3   0.0000
   138 F3      31.1505   7.8255   9.2212   F         3 RES3   0.0000
   139 F4      29.8525   6.4740  10.4864   F         3 RES3   0.0000
   140 F5      30.5224   6.7449   7.3753   F         3 RES3   0.0000
   141 F6      29.2382   5.3806   8.6071   F         3 RES3   0.0000
   142 P2      22.1701   9.0240   0.8478   P.3       4 RES4  -1.0000
   143 F7      23.2130  10.1987   1.0863   F         4 RES4   0.0000
   144 F8      23.3846   7.9960   0.7405   F         4 RES4   0.0000
   145 F9      21.1388   7.8845   0.5867   F         4 RES4   0.0000
   146 F10     20.9936  10.0807   0.9086   F         4 RES4   0.0000
   147 F11     22.0077   8.7977   2.4087   F         4 RES4   0.0000
   148 F12     22.3267   9.2695  -0.7477   F         4 RES4   0.0000
   149 P3      21.8086  16.1132   5.5675   P.3       5 RES5  -1.0000
   150 F13     20.4673  15.5538   5.2658   F         5 RES5   0.0000
   151 F14     22.7336  14.9466   5.4745   F         5 RES5   0.0000
   152 F15     21.5594  15.8279   7.1237   F         5 RES5   0.0000
   153 F16     22.0127  16.4686   4.0126   F         5 RES5   0.0000
   154 F17     21.1240  17.5333   5.7023   F         5 RES5   0.0000
   155 F18     23.1628  16.8750   5.9467   F         5 RES5   0.0000
   156 P4      29.8091  15.3144   9.0030   P.3       6 RES6  -1.0000
   157 F19     30.2630  15.3849   7.4874   F         6 RES6   0.0000
   158 F20     28.2650  15.2510   8.5737   F         6 RES6   0.0000
   159 F21     31.3484  15.3689   9.4799   F         6 RES6   0.0000
   160 F22     29.3451  15.2621  10.5543   F         6 RES6   0.0000
   161 F23     29.8584  13.7034   8.9863   F         6 RES6   0.0000
   162 F24     29.7760  16.9356   9.0399   F         6 RES6   0.0000
   163 O1      22.1764  12.1957  11.1303   O.3       7 RES7   0.0000
@<TRIPOS>BOND
     1     1     2    1
     2     2     3   ar
     3     3     4   ar
     4     4     5   ar
     5     5     6   ar
     6     6     7   ar
     7     7     2   ar
     8     8     6   ar
     9     9     8   ar
    10    10     9   ar
    11    11     7   ar
    12    12    10   ar
    13    13    12   ar
    14    14    13   ar
    15    15     1    1
    16    16     1    1
    17    17    16   ar
    18    18    17   ar
    19    19    18   ar
    20    20    19   ar
    21    21    16   ar
    22    22    20   ar
    23    23    22   ar
    24    24    23   ar
    25    25    21   ar
    26    26    24   ar
    27    27    26   ar
    28    28    27   ar
    29    29     1    1
    30    30     1    1
    31    31    30   ar
    32    32    31   ar
    33    33    32   ar
    34    34    33   ar
    35    35    30   ar
    36    36    34   ar
    37    37    36   ar
    38    38    37   ar
    39    39    35   ar
    40    40    38   ar
    41    41    40   ar
    42    42    41   ar
    43    43     1    1
    44    44     3    1
    45    45     4    1
    46    46     5    1
    47    47     8    1
    48    48     9    1
    49    49    12    1
    50    50    13    1
    51    51    14    1
    52    52    17    1
    53    53    18    1
    54    54    19    1
    55    55    22    1
    56    56    23    1
    57    57    26    1
    58    58    27    1
    59    59    28    1
    60    60    31    1
    61    61    32    1
    62    62    33    1
    63    63    36    1
    64    64    37    1
    65    65    40    1
    66    66    41    1
    67    67    42    1
    68    10    11   ar
    69    11    15   ar
    70    14    15   ar
    71    20    21   ar
    72    24    25   ar
    73    25    29   ar
    74    28    29   ar
    75    34    35   ar
    76    38    39   ar
    77    39    43   ar
    78    42    43   ar
    79    68    69    1
    80    69    70   ar
    81    70    71   ar
    82    71    72   ar
    83    72    73   ar
    84    73    74   ar
    85    74    69   ar
    86    75    73   ar
    87    76    75   ar
    88    77    76   ar
    89    78    74   ar
    90    79    77   ar
    91    80    79   ar
    92    81    80   ar
    93    82    68    1
    94    83    68    1
    95    84    83   ar
    96    85    84   ar
    97    86    85   ar
    98    87    86   ar
    99    88    83   ar
   100    89    87   ar
   101    90    89   ar
   102    91    90   ar
   103    92    88   ar
   104    93    91   ar
   105    94    93   ar
   106    95    94   ar
   107    96    68    1
   108    97    68    1
   109    98    97   ar
   110    99    98   ar
   111   100    99   ar
   112   101   100   ar
   113   102    97   ar
   114   103   101   ar
   115   104   103   ar
   116   105   104   ar
   117   106   102   ar
   118   107   105   ar
   119   108   107   ar
   120   109   108   ar
   121   110    68    1
   122   111    70    1
   123   112    71    1
   124   113    72    1
   125   114    75    1
   126   115    76    1
   127   116    79    1
   128   117    80    1
   129   118    81    1
   130   119    84    1
   131   120    85    1
   132   121    86    1
   133   122    89    1
   134   123    90    1
   135   124    93    1
   136   125    94    1
   137   126    95    1
   138   127    98    1
   139   128    99    1
   140   129   100    1
   141   130   103    1
   142   131   104    1
   143   132   107    1
   144   133   108    1
   145   134   109    1
   146    77    78   ar
   147    78    82   ar
   148    81    82   ar
   149    87    88   ar
   150    91    92   ar
   151    92    96   ar
   152    95    96   ar
   153   101   102   ar
   154   105   106   ar
   155   106   110   ar
   156   109   110   ar
   157   135   136    1
   158   137   135    1
   159   138   135    1
   160   139   135    1
   161   140   135    1
   162   141   135    1
   163   142   143    1
   164   144   142    1
   165   145   142    1
   166   146   142    1
   167   147   142    1
   168   148   142    1
   169   149   150    1
   170   151   149    1
   171   152   149    1
   172   153   149    1
   173   154   149    1
   174   155   149    1
   175   156   157    1
   176   158   156    1
   177   159   156    1
   178   160   156    1
   179   161   156    1
   180   162   156    1
@<TRIPOS>SUBSTRUCTURE
     1 RES1        1 GROUP             0 ****  ****    0  
     2 RES2       68 GROUP             0 ****  ****    0  
     3 RES3      135 GROUP             0 ****  ****    0  
     4 RES4      142 GROUP             0 ****  ****    0  
     5 RES5      149 GROUP             0 ****  ****    0  
     6 RES6      156 GROUP             0 ****  ****    0  
     7 RES7      163 GROUP             0 ****  ****    0  
@<TRIPOS>CRYSIN
   36.7015   15.9379   12.1661   90.0000  101.4390   90.0000     9     1

