@<TRIPOS>MOLECULE
RES
   66    72     1     0     0
SMALL
No Charge or Current Charge


@<TRIPOS>ATOM
      1 N1         26.7890   12.5780    6.1460 nb        2 RES      0.000000
      2 C1         28.0000   13.1550    6.2390 ca        2 RES      0.000000
      3 C2         28.5390   13.9230    5.1690 ca        2 RES      0.000000
      4 C3         27.8060   14.0520    4.0030 ca        2 RES      0.000000
      5 C4         26.5220   13.5090    3.9110 ca        2 RES      0.000000
      6 C5         26.0370   12.7770    5.0000 ca        2 RES      0.000000
      7 C6         25.6680   13.6520    2.7460 ca        2 RES      0.000000
      8 C7         24.4790   13.1040    2.7270 ca        2 RES      0.000000
      9 C8         23.9590   12.3600    3.8270 ca        2 RES      0.000000
     10 C9         24.7370   12.1860    4.9510 ca        2 RES      0.000000
     11 C10        22.6800   11.6870    3.8550 ca        2 RES      0.000000
     12 C11        22.3450   10.9640    4.9660 ca        2 RES      0.000000
     13 C12        23.1880   10.8580    6.0400 ca        2 RES      0.000000
     14 N2         24.4160   11.4690    6.0470 nb        2 RES      0.000000
     15 N3         27.2380   11.4280    9.0460 nb        2 RES      0.000000
     16 C13        28.2100   10.6150    9.3170 ca        2 RES      0.000000
     17 C14        28.9720   10.5880   10.4840 ca        2 RES      0.000000
     18 C15        28.6730   11.5420   11.4550 ca        2 RES      0.000000
     19 C16        27.6400   12.4600   11.2460 ca        2 RES      0.000000
     20 C17        26.8960   12.3810   10.0420 ca        2 RES      0.000000
     21 C18        27.2300   13.4980   12.1810 ca        2 RES      0.000000
     22 C19        26.2590   14.3510   11.9020 ca        2 RES      0.000000
     23 C20        25.4940   14.2660   10.6600 ca        2 RES      0.000000
     24 C21        25.8550   13.2650    9.7460 ca        2 RES      0.000000
     25 C22        24.4620   15.1040   10.3380 ca        2 RES      0.000000
     26 C23        23.8130   14.9580    9.1190 ca        2 RES      0.000000
     27 C24        24.2060   13.8630    8.2650 ca        2 RES      0.000000
     28 N4         25.2000   13.0340    8.5940 nb        2 RES      0.000000
     29 N5         26.5840    9.6010    6.7520 nb        2 RES      0.000000
     30 C25        27.5260    9.4370    5.8220 ca        2 RES      0.000000
     31 C26        27.9920    8.1910    5.4050 ca        2 RES      0.000000
     32 C27        27.4310    7.0530    5.9670 ca        2 RES      0.000000
     33 C28        26.4720    7.2130    6.9130 ca        2 RES      0.000000
     34 C29        26.0520    8.4930    7.3420 ca        2 RES      0.000000
     35 C30        25.8330    6.0360    7.5530 ca        2 RES      0.000000
     36 C31        24.9120    6.2320    8.4410 ca        2 RES      0.000000
     37 C32        24.4240    7.5900    8.9290 ca        2 RES      0.000000
     38 C33        25.0700    8.6990    8.3140 ca        2 RES      0.000000
     39 C34        23.4770    7.8270    9.8160 ca        2 RES      0.000000
     40 C35        23.1530    9.1610   10.1850 ca        2 RES      0.000000
     41 C36        23.8310   10.2860    9.6090 ca        2 RES      0.000000
     42 N6         24.7620    9.9920    8.6560 nb        2 RES      0.000000
     43 H1         28.5250   13.0370    7.0350 h4        2 RES      0.000000
     44 H2         29.4010   14.3440    5.2470 ha        2 RES      0.000000
     45 H3         28.1890   14.5190    3.2550 ha        2 RES      0.000000
     46 H4         25.9880   14.1210    1.9800 ha        2 RES      0.000000
     47 H5         23.9400   13.2130    1.9440 ha        2 RES      0.000000
     48 H6         22.0910   11.7300    3.1000 ha        2 RES      0.000000
     49 H7         21.4870   10.5190    4.9960 ha        2 RES      0.000000
     50 H8         22.9190   10.3600    6.8090 h4        2 RES      0.000000
     51 H9         28.4190    9.9610    8.6450 h4        2 RES      0.000000
     52 H10        29.6660    9.9450   10.6490 ha        2 RES      0.000000
     53 H11        29.1930   11.6030   12.2580 ha        2 RES      0.000000
     54 H12        27.7220   13.5790   12.9980 ha        2 RES      0.000000
     55 H13        26.0520   15.0290   12.5440 ha        2 RES      0.000000
     56 H14        24.2120   15.8100   10.9350 ha        2 RES      0.000000
     57 H15        23.1280   15.5710    8.8600 ha        2 RES      0.000000
     58 H16        23.7450   13.7070    7.4410 h4        2 RES      0.000000
     59 H17        27.8690   10.2160    5.3780 h4        2 RES      0.000000
     60 H18        28.6920    8.1280    4.7580 ha        2 RES      0.000000
     61 H19        27.7330    6.1840    5.6880 ha        2 RES      0.000000
     62 H20        26.0890    5.1480    7.2860 ha        2 RES      0.000000
     63 H21        24.5290    5.4350    8.8240 ha        2 RES      0.000000
     64 H22        22.9970    7.0920   10.2310 ha        2 RES      0.000000
     65 H23        22.4700    9.3080   10.8390 ha        2 RES      0.000000
     66 H24        23.6590   11.1880    9.8610 h4        2 RES      0.000000
@<TRIPOS>BOND
     1    1    2 ar  
     2    1    6 ar  
     3    2    3 ar  
     4    2   43 1   
     5    3    4 ar  
     6    3   44 1   
     7    4    5 ar  
     8    4   45 1   
     9    5    6 ar  
    10    5    7 ar  
    11    6   10 ar  
    12    7    8 ar  
    13    7   46 1   
    14    8    9 ar  
    15    8   47 1   
    16    9   10 ar  
    17    9   11 ar  
    18   10   14 ar  
    19   11   12 ar  
    20   11   48 1   
    21   12   13 ar  
    22   12   49 1   
    23   13   14 ar  
    24   13   50 1   
    25   15   16 ar  
    26   15   20 ar  
    27   16   17 ar  
    28   16   51 1   
    29   17   18 ar  
    30   17   52 1   
    31   18   19 ar  
    32   18   53 1   
    33   19   20 ar  
    34   19   21 ar  
    35   20   24 ar  
    36   21   22 ar  
    37   21   54 1   
    38   22   23 ar  
    39   22   55 1   
    40   23   24 ar  
    41   23   25 ar  
    42   24   28 ar  
    43   25   26 ar  
    44   25   56 1   
    45   26   27 ar  
    46   26   57 1   
    47   27   28 ar  
    48   27   58 1   
    49   29   30 ar  
    50   29   34 ar  
    51   30   31 ar  
    52   30   59 1   
    53   31   32 ar  
    54   31   60 1   
    55   32   33 ar  
    56   32   61 1   
    57   33   34 ar  
    58   33   35 ar  
    59   34   38 ar  
    60   35   36 ar  
    61   35   62 1   
    62   36   37 ar  
    63   36   63 1   
    64   37   38 ar  
    65   37   39 ar  
    66   38   42 ar  
    67   39   40 ar  
    68   39   64 1   
    69   40   41 ar  
    70   40   65 1   
    71   41   42 ar  
    72   41   66 1   
@<TRIPOS>SUBSTRUCTURE
     1 RES         1 TEMP              0 ****  ****    0 ROOT
